Version 4
SHEET 1 880 680
WIRE 160 112 96 112
WIRE 320 144 256 144
WIRE 336 144 320 144
WIRE 256 160 256 144
WIRE 336 160 336 144
WIRE 208 208 208 192
WIRE 160 240 160 176
WIRE 256 240 160 240
WIRE 96 256 96 192
WIRE 160 256 160 240
WIRE 336 256 336 240
WIRE 96 352 96 336
WIRE 160 352 160 336
FLAG 208 208 0
FLAG 336 256 0
FLAG 96 352 0
FLAG 160 352 0
FLAG 320 144 out
SYMBOL SLO 176 144 R0
SYMATTR InstName O1
SYMATTR Value OPA211_A0
SYMBOL SLR 256 160 R0
SYMATTR InstName R1
SYMATTR Value {R_a}
SYMBOL SLR 160 256 R0
SYMATTR InstName R2
SYMATTR Value {R_b}
SYMBOL SLR 96 112 R0
SYMATTR InstName R3
SYMATTR Value {R_s}
SYMBOL SLV 96 256 M0
SYMATTR InstName V1
SYMBOL SLC 336 160 R0
SYMATTR InstName C1
SYMATTR Value {C_ell}
TEXT 248 296 Left 2 !.include SLiCAP.lib
TEXT 248 320 Left 2 !.param R_s=600 R_a=20k R_b=220 C_ell=3.3n A_0=667k
