Version 4
SHEET 1 880 680
WIRE 96 64 -32 64
WIRE 160 64 96 64
WIRE -32 160 -32 144
WIRE -32 160 -48 160
WIRE 64 160 -32 160
WIRE 160 160 160 144
WIRE 160 160 144 160
WIRE 192 160 160 160
WIRE 224 160 192 160
WIRE -32 176 -32 160
WIRE 160 176 160 160
WIRE 96 256 -32 256
WIRE 160 256 96 256
FLAG -48 160 0
FLAG 96 64 inP
FLAG 96 256 inN
FLAG 192 160 C
SYMBOL SLR 160 64 R0
WINDOW 3 16 28 Left 2
WINDOW 39 16 51 Left 2
WINDOW 40 16 63 Left 2
SYMATTR InstName R1
SYMATTR Value value={R_a}
SYMBOL SLR 160 176 R0
WINDOW 3 17 18 Left 2
WINDOW 123 17 28 Left 2
WINDOW 39 17 38 Left 2
WINDOW 40 17 49 Left 2
SYMATTR InstName R2
SYMATTR Value value={R_b}
SYMBOL SLI -32 176 R0
WINDOW 0 41 13 Left 2
WINDOW 123 41 35 Left 2
WINDOW 39 41 45 Left 2
WINDOW 40 41 55 Left 2
SYMATTR InstName I2
SYMBOL SLI -32 144 M180
WINDOW 0 45 62 Left 2
WINDOW 3 45 51 Left 2
WINDOW 123 45 16 Left 2
WINDOW 39 45 39 Left 2
WINDOW 40 45 28 Left 2
SYMATTR InstName I1
SYMBOL SLR 64 160 M90
WINDOW 0 -8 40 VBottom 2
WINDOW 3 8 40 VTop 2
WINDOW 123 40 40 VTop 2
WINDOW 39 19 38 VTop 2
WINDOW 40 30 28 VTop 2
SYMATTR InstName R3
SYMATTR Value value={R_c}
